<?xml version="1.0" encoding="UTF-8"?>

<!-- generated on 2024-04-24 14:41:33 by 
<configuration xmlns:xsi="http://www.w3.org/2001/XMLSchema-instance" xsi:noNamespaceSchemaLocation="http://sumo.dlr.de/xsd/Configuration.xsd">

    <input>
        <osm-files value="TRUE"/>
    </input>

    <output>
        <opendrive-output value="TRUE"/>
    </output>

    <projection>
        <proj value="+proj=tmerc"/>
    </projection>

    <processing>
        <geometry.remove value="true"/>
        <roundabouts.guess value="true"/>
        <edges.join value="true"/>
    </processing>

    <building_defaults>
        <default.lanewidth value="3.350000"/>
        <default.sidewalk-width value="2.800000"/>
    </building_defaults>

    <tls_building>
        <tls.group-signals value="true"/>
    </tls_building>

    <ramp_guessing>
        <ramps.guess value="true"/>
    </ramp_guessing>

    <edge_removal>
        <keep-edges.by-type value="highway.motorway,highway.motorway_link,highway.trunk,highway.trunk_link,highway.primary,highway.primary_link,highway.secondary,highway.secondary_link,highway.tertiary,highway.tertiary_link,highway.unclassified,highway.residential,"/>
    </edge_removal>

    <junctions>
        <junctions.join value="true"/>
    </junctions>

    <pedestrian>
        <sidewalks.guess value="true"/>
    </pedestrian>

    <formats>
        <osm.sidewalks value="true"/>
        <osm.crossings value="true"/>
    </formats>

    <report>
        <aggregate-warnings value="5"/>
    </report>

</configuration>
-->

<OpenDRIVE>
    <header revMajor="1" revMinor="4" name="" version="1.00" date="Wed Apr 24 14:41:33 2024" north="991.48" south="0.00" east="1370.70" west="0.00">
        <geoReference>
 <![CDATA[
 +proj=tmerc
]]>
        </geoReference>
        <offset x="-3867003.18" y="-15070106.44" z="0.00" hdg="0"/>
    </header>
    <road name="御馬越塩尻停車場線" length="236.69416634" id="1030" junction="-1">
        <link>
            <predecessor elementType="junction" elementId="1"/>
            <successor elementType="junction" elementId="2"/>
        </link>
        <type s="0" type="town"/>
        <planView>
            <geometry s="0.00000000" x="1336.51212365" y="496.63931276" hdg="1.24503919" length="86.95419288">
                <line/>
            </geometry>
            <geometry s="86.95419288" x="1364.33974341" y="579.02047103" hdg="1.24503919" length="11.09466530">
                <paramPoly3 aU="0.00000000" bU="8.31777080" cU="8.31771278" dU="-5.56583381" aV="0.00000000" bV="0.00000000" cV="1.01809923" dV="-0.34063158" pRange="normalized"/>
            </geometry>
            <geometry s="98.04885818" x="1367.24048260" y="589.72476086" hdg="1.36728763" length="11.56505604">
                <line/>
            </geometry>
            <geometry s="109.61391423" x="1369.57785972" y="601.05115435" hdg="1.36728763" length="10.93693601">
                <paramPoly3 aU="0.00000000" bU="8.18555141" cU="7.91052002" dU="-5.37555112" aV="0.00000000" bV="0.00000000" cV="3.92308171" dV="-1.87678345" pRange="normalized"/>
            </geometry>
            <geometry s="120.55085024" x="1369.74048060" y="611.96401130" hdg="1.64140575" length="9.06545063">
                <paramPoly3 aU="0.00000000" bU="6.79290495" cU="6.76676448" dU="-4.55055557" aV="-0.00000000" bV="0.00000000" cV="1.53501350" dV="-0.60288747" pRange="normalized"/>
            </geometry>
            <geometry s="129.61630087" x="1368.17507740" y="620.88491396" hdg="1.82817829" length="10.98541912">
                <paramPoly3 aU="0.00000000" bU="8.23641907" cU="8.20699493" dU="-5.48764181" aV="-0.00000000" bV="0.00000000" cV="1.37442176" dV="-0.61744768" pRange="normalized"/>
            </geometry>
            <geometry s="140.60171999" x="1364.65425053" y="631.28711239" hdg="1.93724027" length="3.92064180">
                <paramPoly3 aU="0.00000000" bU="2.93752979" cU="2.91916413" dU="-1.96478227" aV="-0.00000000" bV="0.00000000" cV="0.74910146" dV="-0.30908714" pRange="normalized"/>
            </geometry>
            <geometry s="144.52236179" x="1362.84898674" y="634.76297367" hdg="2.13284635" length="11.04196680">
                <paramPoly3 aU="0.00000000" bU="8.28070255" cU="8.28122211" dU="-5.52576679" aV="-0.00000000" bV="-0.00000000" cV="0.47863847" dV="-0.15382554" pRange="normalized"/>
            </geometry>
            <geometry s="155.56432859" x="1356.69273058" y="643.92827749" hdg="2.19275637" length="4.11252516">
                <paramPoly3 aU="0.00000000" bU="3.08309080" cU="3.06537023" dU="-2.05147318" aV="-0.00000000" bV="-0.00000000" cV="0.62827462" dV="-0.29172386" pRange="normalized"/>
            </geometry>
            <geometry s="159.67685375" x="1354.03217791" y="647.06197104" hdg="2.31677381" length="11.09449337">
                <paramPoly3 aU="0.00000000" bU="8.31949548" cU="8.33774600" dU="-5.56592733" aV="-0.00000000" bV="0.00000000" cV="-0.09010166" dV="0.26293222" pRange="normalized"/>
            </geometry>
            <geometry s="170.77134712" x="1346.37768259" y="655.09040934" hdg="2.38999189" length="65.92281922">
                <line/>
            </geometry>
        </planView>
        <elevationProfile>
            <elevation s="0" a="0.00" b="0" c="0" d="0"/>
        </elevationProfile>
        <lateralProfile/>
        <lanes>
            <laneSection s="0">
                <center>
                    <lane id="0" type="none" level="true">
                        <link/>
                        <roadMark sOffset="0" type="solid" weight="standard" color="standard" width="0.13" laneChange="none"/>
                    </lane>
                </center>
                <right>
                    <lane id="-1" type="driving" level="true">
                        <link/>
                        <width sOffset="0" a="3.35" b="0" c="0" d="0"/>
                        <roadMark sOffset="0" type="solid" weight="standard" color="standard" width="0.13" laneChange="none"/>
                        <speed sOffset="0" max="11.11"/>
                    </lane>
                    <lane id="-2" type="sidewalk" level="true">
                        <link/>
                        <width sOffset="0" a="2.80" b="0" c="0" d="0"/>
                        <roadMark sOffset="0" type="solid" weight="standard" color="standard" width="0.13" laneChange="none"/>
                        <speed sOffset="0" max="11.11"/>
                    </lane>
                 </right>
            </laneSection>
        </lanes>
        <objects/>
    </road>
    <road name="" length="38.23055448" id="1031" junction="-1">
        <link>
            <predecessor elementType="junction" elementId="3"/>
            <successor elementType="junction" elementId="4"/>
        </link>
        <type s="0" type="town"/>
        <planView>
            <geometry s="0.00000000" x="886.45896133" y="619.18449966" hdg="2.58125738" length="2.56268091">
                <line/>
            </geometry>
            <geometry s="2.56268091" x="884.28817334" y="620.54648827" hdg="2.58125738" length="11.11111108">
                <paramPoly3 aU="0.00000000" bU="8.33333330" cU="8.33333330" dU="-5.55555558" aV="-0.00000000" bV="0.00000000" cV="0.00142521" dV="-0.00047507" pRange="normalized"/>
            </geometry>
            <geometry s="13.67379199" x="874.87570209" y="626.45090816" hdg="2.58142841" length="24.55676249">
                <line/>
            </geometry>
        </planView>
        <elevationProfile>
            <elevation s="0" a="0.00" b="0" c="0" d="0"/>
        </elevationProfile>
        <lateralProfile/>
        <lanes>
            <laneSection s="0">
                <center>
                    <lane id="0" type="none" level="true">
                        <link/>
                        <roadMark sOffset="0" type="solid" weight="standard" color="standard" width="0.13" laneChange="none"/>
                    </lane>
                </center>
                <right>
                    <lane id="-1" type="driving" level="true">
                        <link/>
                        <width sOffset="0" a="3.35" b="0" c="0" d="0"/>
                        <roadMark sOffset="0" type="solid" weight="standard" color="standard" width="0.13" laneChange="none"/>
                        <speed sOffset="0" max="11.11"/>
                    </lane>
                    <lane id="-2" type="sidewalk" level="true">
                        <link/>
                        <width sOffset="0" a="2.80" b="0" c="0" d="0"/>
                        <roadMark sOffset="0" type="solid" weight="standard" color="standard" width="0.13" laneChange="none"/>
                        <speed sOffset="0" max="11.11"/>
                    </lane>
                 </right>
            </laneSection>
        </lanes>
        <objects/>
    </road>
    <road name="" length="31.68348592" id="1032" junction="-1">
        <link>
            <predecessor elementType="junction" elementId="5"/>
            <successor elementType="junction" elementId="3"/>
        </link>
        <type s="0" type="town"/>
        <planView>
            <geometry s="0.00000000" x="933.10170191" y="591.94016476" hdg="2.61715009" length="31.68348592">
                <line/>
            </geometry>
        </planView>
        <elevationProfile>
            <elevation s="0" a="0.00" b="0" c="0" d="0"/>
        </elevationProfile>
        <lateralProfile/>
        <lanes>
            <laneSection s="0">
                <center>
                    <lane id="0" type="none" level="true">
                        <link/>
                        <roadMark sOffset="0" type="solid" weight="standard" color="standard" width="0.13" laneChange="none"/>
                    </lane>
                </center>
                <right>
                    <lane id="-1" type="driving" level="true">
                        <link/>
                        <width sOffset="0" a="3.35" b="0" c="0" d="0"/>
                        <roadMark sOffset="0" type="solid" weight="standard" color="standard" width="0.13" laneChange="none"/>
                        <speed sOffset="0" max="11.11"/>
                    </lane>
                    <lane id="-2" type="sidewalk" level="true">
                        <link/>
                        <width sOffset="0" a="2.80" b="0" c="0" d="0"/>
                        <roadMark sOffset="0" type="solid" weight="standard" color="standard" width="0.13" laneChange="none"/>
                        <speed sOffset="0" max="11.11"/>
                    </lane>
                 </right>
            </laneSection>
        </lanes>
        <objects/>
    </road>
    <road name="しらかば通り" length="665.04032894" id="1033" junction="-1">
        <link>
            <predecessor elementType="junction" elementId="6"/>
            <successor elementType="junction" elementId="7"/>
        </link>
        <type s="0" type="town"/>
        <planView>
            <geometry s="0.00000000" x="586.12309488" y="456.79068525" hdg="2.64589197" length="107.10068349">
                <line/>
            </geometry>
            <geometry s="107.10068349" x="491.91351587" y="507.73292339" hdg="2.64589197" length="11.11058997">
                <paramPoly3 aU="0.00000000" bU="8.33283987" cU="8.33283981" dU="-5.55588443" aV="-0.00000000" bV="-0.00000000" cV="0.18137426" dV="-0.06046525" pRange="normalized"/>
            </geometry>
            <geometry s="118.21127346" x="482.08343380" y="512.91092067" hdg="2.66765731" length="21.47372212">
                <line/>
            </geometry>
            <geometry s="139.68499558" x="462.97656409" y="522.71134269" hdg="2.66765731" length="11.11111110">
                <paramPoly3 aU="0.00000000" bU="8.33333332" cU="8.33333332" dU="-5.55555556" aV="-0.00000000" bV="-0.00000000" cV="0.00094981" dV="-0.00031660" pRange="normalized"/>
            </geometry>
            <geometry s="150.79610668" x="453.08984040" y="527.78179477" hdg="2.66777129" length="28.90756144">
                <line/>
            </geometry>
            <geometry s="179.70366812" x="427.36699208" y="540.97202535" hdg="2.66777129" length="11.11095564">
                <paramPoly3 aU="0.00000000" bU="8.33318612" cU="8.33318611" dU="-5.55565369" aV="-0.00000000" bV="0.00000000" cV="-0.09906735" dV="0.03302362" pRange="normalized"/>
            </geometry>
            <geometry s="190.81462376" x="417.51046385" y="546.10050264" hdg="2.65588314" length="32.76933379">
                <line/>
            </geometry>
            <geometry s="223.58395755" x="388.53110196" y="561.39840517" hdg="2.65588314" length="11.11062649">
                <paramPoly3 aU="0.00000000" bU="8.33287445" cU="8.33287440" dU="-5.55586139" aV="-0.00000000" bV="0.00000000" cV="-0.17490383" dV="0.05830770" pRange="normalized"/>
            </geometry>
            <geometry s="234.69458404" x="378.76057154" y="566.68801094" hdg="2.63489429" length="107.30861900">
                <line/>
            </geometry>
            <geometry s="342.00320305" x="284.93511607" y="618.76414384" hdg="2.63489429" length="11.11107029">
                <paramPoly3 aU="0.00000000" bU="8.33329468" cU="8.33329468" dU="-5.55558133" aV="-0.00000000" bV="0.00000000" cV="0.05076445" dV="-0.01692164" pRange="normalized"/>
            </geometry>
            <geometry s="353.11427334" x="275.20376549" y="624.12664892" hdg="2.64098603" length="123.04213644">
                <line/>
            </geometry>
            <geometry s="476.15640977" x="167.25993622" y="683.18168309" hdg="2.64098603" length="11.11085445">
                <paramPoly3 aU="0.00000000" bU="8.33309030" cU="8.33309028" dU="-5.55571756" aV="-0.00000000" bV="0.00000000" cV="0.12728823" dV="-0.04243188" pRange="normalized"/>
            </geometry>
            <geometry s="487.26726422" x="157.47209319" y="688.43979282" hdg="2.65626077" length="82.61336965">
                <line/>
            </geometry>
            <geometry s="569.88063387" x="84.39890113" y="726.97909027" hdg="2.65626077" length="11.11110629">
                <paramPoly3 aU="0.00000000" bU="8.33332877" cU="8.33332877" dU="-5.55555860" aV="-0.00000000" bV="0.00000000" cV="0.01744362" dV="-0.00581455" pRange="normalized"/>
            </geometry>
            <geometry s="580.99174016" x="74.56548498" y="732.15215336" hdg="2.65835401" length="30.49802299">
                <line/>
            </geometry>
            <geometry s="611.48976315" x="47.55964625" y="746.32304185" hdg="2.65835401" length="11.11106668">
                <paramPoly3 aU="0.00000000" bU="8.33329126" cU="8.33329126" dU="-5.55558360" aV="-0.00000000" bV="-0.00000000" cV="0.05295825" dV="-0.01765293" pRange="normalized"/>
            </geometry>
            <geometry s="622.60082983" x="37.70451062" y="751.45449830" hdg="2.66470901" length="42.43949911">
                <line/>
            </geometry>
        </planView>
        <elevationProfile>
            <elevation s="0" a="0.00" b="0" c="0" d="0"/>
        </elevationProfile>
        <lateralProfile/>
        <lanes>
            <laneSection s="0">
                <center>
                    <lane id="0" type="none" level="true">
                        <link/>
                        <roadMark sOffset="0" type="solid" weight="standard" color="standard" width="0.13" laneChange="none"/>
                    </lane>
                </center>
                <right>
                    <lane id="-1" type="driving" level="true">
                        <link/>
                        <width sOffset="0" a="3.35" b="0" c="0" d="0"/>
                        <roadMark sOffset="0" type="solid" weight="standard" color="standard" width="0.13" laneChange="none"/>
                        <speed sOffset="0" max="11.11"/>
                    </lane>
                    <lane id="-2" type="sidewalk" level="true">
                        <link/>
                        <width sOffset="0" a="2.80" b="0" c="0" d="0"/>
                        <roadMark sOffset="0" type="solid" weight="standard" color="standard" width="0.13" laneChange="none"/>
                        <speed sOffset="0" max="11.11"/>
                    </lane>
                 </right>
            </laneSection>
        </lanes>
        <objects/>
    </road>
    <road name="しらかば通り" length="105.07490517" id="1034" junction="-1">
        <link>
            <predecessor elementType="junction" elementId="8"/>
            <successor elementType="junction" elementId="6"/>
        </link>
        <type s="0" type="town"/>
        <planView>
            <geometry s="0.00000000" x="692.06182593" y="399.64430806" hdg="2.64697114" length="105.07490517">
                <line/>
            </geometry>
        </planView>
        <elevationProfile>
            <elevation s="0" a="0.00" b="0" c="0" d="0"/>
        </elevationProfile>
        <lateralProfile/>
        <lanes>
            <laneSection s="0">
                <center>
                    <lane id="0" type="none" level="true">
                        <link/>
                        <roadMark sOffset="0" type="solid" weight="standard" color="standard" width="0.13" laneChange="none"/>
                    </lane>
                </center>
                <right>
                    <lane id="-1" type="driving" level="true">
                        <link/>
                        <width sOffset="0" a="3.35" b="0" c="0" d="0"/>
                        <roadMark sOffset="0" type="solid" weight="standard" color="standard" width="0.13" laneChange="none"/>
                        <speed sOffset="0" max="11.11"/>
                    </lane>
                    <lane id="-2" type="sidewalk" level="true">
                        <link/>
                        <width sOffset="0" a="2.80" b="0" c="0" d="0"/>
                        <roadMark sOffset="0" type="solid" weight="standard" color="standard" width="0.13" laneChange="none"/>
                        <speed sOffset="0" max="11.11"/>
                    </lane>
                 </right>
            </laneSection>
        </lanes>
        <objects/>
    </road>
    <road name="" length="200.65396276" id="1035" junction="-1">
        <link>
            <predecessor elementType="junction" elementId="9"/>
            <successor elementType="junction" elementId="10"/>
        </link>
        <type s="0" type="town"/>
        <planView>
            <geometry s="0.00000000" x="627.60027757" y="266.74302487" hdg="-2.07105100" length="122.59429648">
                <line/>
            </geometry>
            <geometry s="122.59429648" x="568.79804360" y="159.17137986" hdg="-2.07105100" length="11.11109850">
                <paramPoly3 aU="-0.00000000" bU="8.33332139" cU="8.33332139" dU="-5.55556351" aV="0.00000000" bV="-0.00000000" cV="-0.02821168" dV="0.00940392" pRange="normalized"/>
            </geometry>
            <geometry s="133.70539499" x="563.45212226" y="149.43086850" hdg="-2.07443640" length="46.75220205">
                <line/>
            </geometry>
            <geometry s="180.45759703" x="540.88872309" y="108.48381227" hdg="-2.07443640" length="11.11111095">
                <paramPoly3 aU="-0.00000000" bU="8.33333318" cU="8.33333318" dU="-5.55555566" aV="0.00000000" bV="0.00000000" cV="-0.00317429" dV="0.00105810" pRange="normalized"/>
            </geometry>
            <geometry s="191.56870798" x="535.52446072" y="98.75337164" hdg="-2.07481732" length="9.08525478">
                <line/>
            </geometry>
        </planView>
        <elevationProfile>
            <elevation s="0" a="0.00" b="0" c="0" d="0"/>
        </elevationProfile>
        <lateralProfile/>
        <lanes>
            <laneSection s="0">
                <center>
                    <lane id="0" type="none" level="true">
                        <link/>
                        <roadMark sOffset="0" type="solid" weight="standard" color="standard" width="0.13" laneChange="none"/>
                    </lane>
                </center>
                <right>
                    <lane id="-1" type="driving" level="true">
                        <link/>
                        <width sOffset="0" a="3.35" b="0" c="0" d="0"/>
                        <roadMark sOffset="0" type="solid" weight="standard" color="standard" width="0.13" laneChange="none"/>
                        <speed sOffset="0" max="11.11"/>
                    </lane>
                    <lane id="-2" type="sidewalk" level="true">
                        <link/>
                        <width sOffset="0" a="2.80" b="0" c="0" d="0"/>
                        <roadMark sOffset="0" type="solid" weight="standard" color="standard" width="0.13" laneChange="none"/>
                        <speed sOffset="0" max="11.11"/>
                    </lane>
                 </right>
            </laneSection>
        </lanes>
        <objects/>
    </road>
    <road name="" length="32.40652682" id="1036" junction="-1">
        <link>
            <predecessor elementType="junction" elementId="11"/>
            <successor elementType="junction" elementId="9"/>
        </link>
        <type s="0" type="town"/>
        <planView>
            <geometry s="0.00000000" x="650.65935766" y="308.60630370" hdg="-2.07489248" length="32.40652682">
                <line/>
            </geometry>
        </planView>
        <elevationProfile>
            <elevation s="0" a="0.00" b="0" c="0" d="0"/>
        </elevationProfile>
        <lateralProfile/>
        <lanes>
            <laneSection s="0">
                <center>
                    <lane id="0" type="none" level="true">
                        <link/>
                        <roadMark sOffset="0" type="solid" weight="standard" color="standard" width="0.13" laneChange="none"/>
                    </lane>
                </center>
                <right>
                    <lane id="-1" type="driving" level="true">
                        <link/>
                        <width sOffset="0" a="3.35" b="0" c="0" d="0"/>
                        <roadMark sOffset="0" type="solid" weight="standard" color="standard" width="0.13" laneChange="none"/>
                        <speed sOffset="0" max="11.11"/>
                    </lane>
                    <lane id="-2" type="sidewalk" level="true">
                        <link/>
                        <width sOffset="0" a="2.80" b="0" c="0" d="0"/>
                        <roadMark sOffset="0" type="solid" weight="standard" color="standard" width="0.13" laneChange="none"/>
                        <speed sOffset="0" max="11.11"/>
                    </lane>
                 </right>
            </laneSection>
        </lanes>
        <objects/>
    </road>
    <road name="" length="76.75851785" id="1037" junction="-1">
        <link>
            <predecessor elementType="junction" elementId="8"/>
            <successor elementType="junction" elementId="11"/>
        </link>
        <type s="0" type="town"/>
        <planView>
            <geometry s="0.00000000" x="695.12374682" y="389.23604257" hdg="-2.07475042" length="76.75851785">
                <line/>
            </geometry>
        </planView>
        <elevationProfile>
            <elevation s="0" a="0.00" b="0" c="0" d="0"/>
        </elevationProfile>
        <lateralProfile/>
        <lanes>
            <laneSection s="0">
                <center>
                    <lane id="0" type="none" level="true">
                        <link/>
                        <roadMark sOffset="0" type="solid" weight="standard" color="standard" width="0.13" laneChange="none"/>
                    </lane>
                </center>
                <right>
                    <lane id="-1" type="driving" level="true">
                        <link/>
                        <width sOffset="0" a="3.35" b="0" c="0" d="0"/>
                        <roadMark sOffset="0" type="solid" weight="standard" color="standard" width="0.13" laneChange="none"/>
                        <speed sOffset="0" max="11.11"/>
                    </lane>
                    <lane id="-2" type="sidewalk" level="true">
                        <link/>
                        <width sOffset="0" a="2.80" b="0" c="0" d="0"/>
                        <roadMark sOffset="0" type="solid" weight="standard" color="standard" width="0.13" laneChange="none"/>
                        <speed sOffset="0" max="11.11"/>
                    </lane>
                 </right>
            </laneSection>
        </lanes>
        <objects/>
    </road>
    <road name="" length="36.69127758" id="1038" junction="-1">
        <link>
            <predecessor elementType="junction" elementId="12"/>
            <successor elementType="junction" elementId="13"/>
        </link>
        <type s="0" type="town"/>
        <planView>
            <geometry s="0.00000000" x="1088.62214625" y="551.35806102" hdg="1.95237616" length="36.69127758">
                <line/>
            </geometry>
        </planView>
        <elevationProfile>
            <elevation s="0" a="0.00" b="0" c="0" d="0"/>
        </elevationProfile>
        <lateralProfile/>
        <lanes>
            <laneSection s="0">
                <center>
                    <lane id="0" type="none" level="true">
                        <link/>
                        <roadMark sOffset="0" type="solid" weight="standard" color="standard" width="0.13" laneChange="none"/>
                    </lane>
                </center>
                <right>
                    <lane id="-1" type="driving" level="true">
                        <link/>
                        <width sOffset="0" a="3.35" b="0" c="0" d="0"/>
                        <roadMark sOffset="0" type="solid" weight="standard" color="standard" width="0.13" laneChange="none"/>
                        <speed sOffset="0" max="13.89"/>
                    </lane>
                    <lane id="-2" type="sidewalk" level="true">
                        <link/>
                        <width sOffset="0" a="2.80" b="0" c="0" d="0"/>
                        <roadMark sOffset="0" type="solid" weight="standard" color="standard" width="0.13" laneChange="none"/>
                        <speed sOffset="0" max="13.89"/>
                    </lane>
                 </right>
            </laneSection>
        </lanes>
        <objects/>
    </road>
    <road name="" length="155.18979018" id="1039" junction="-1">
        <link>
            <predecessor elementType="junction" elementId="14"/>
            <successor elementType="junction" elementId="15"/>
        </link>
        <type s="0" type="town"/>
        <planView>
            <geometry s="0.00000000" x="861.19668899" y="225.42248978" hdg="-0.49076024" length="155.18979018">
                <line/>
            </geometry>
        </planView>
        <elevationProfile>
            <elevation s="0" a="0.00" b="0" c="0" d="0"/>
        </elevationProfile>
        <lateralProfile/>
        <lanes>
            <laneSection s="0">
                <center>
                    <lane id="0" type="none" level="true">
                        <link/>
                        <roadMark sOffset="0" type="solid" weight="standard" color="standard" width="0.13" laneChange="none"/>
                    </lane>
                </center>
                <right>
                    <lane id="-1" type="driving" level="true">
                        <link/>
                        <width sOffset="0" a="3.35" b="0" c="0" d="0"/>
                        <roadMark sOffset="0" type="solid" weight="standard" color="standard" width="0.13" laneChange="none"/>
                        <speed sOffset="0" max="13.89"/>
                    </lane>
                    <lane id="-2" type="sidewalk" level="true">
                        <link/>
                        <width sOffset="0" a="2.80" b="0" c="0" d="0"/>
                        <roadMark sOffset="0" type="solid" weight="standard" color="standard" width="0.13" laneChange="none"/>
                        <speed sOffset="0" max="13.89"/>
                    </lane>
                 </right>
            </laneSection>
        </lanes>
        <objects/>
    </road>
    <road name="" length="102.44330852" id="1040" junction="-1">
        <link>
            <predecessor elementType="junction" elementId="16"/>
            <successor elementType="junction" elementId="17"/>
        </link>
        <type s="0" type="town"/>
        <planView>
            <geometry s="0.00000000" x="1081.98590316" y="352.41903735" hdg="1.95492154" length="102.44330852">
                <line/>
            </geometry>
        </planView>
        <elevationProfile>
            <elevation s="0" a="0.00" b="0" c="0" d="0"/>
        </elevationProfile>
        <lateralProfile/>
        <lanes>
            <laneSection s="0">
                <center>
                    <lane id="0" type="none" level="true">
                        <link/>
                        <roadMark sOffset="0" type="solid" weight="standard" color="standard" width="0.13" laneChange="none"/>
                    </lane>
                </center>
                <right>
                    <lane id="-1" type="driving" level="true">
                        <link/>
                        <width sOffset="0" a="3.35" b="0" c="0" d="0"/>
                        <roadMark sOffset="0" type="solid" weight="standard" color="standard" width="0.13" laneChange="none"/>
                        <speed sOffset="0" max="13.89"/>
                    </lane>
                    <lane id="-2" type="sidewalk" level="true">
                        <link/>
                        <width sOffset="0" a="2.80" b="0" c="0" d="0"/>
                        <roadMark sOffset="0" type="solid" weight="standard" color="standard" width="0.13" laneChange="none"/>
                        <speed sOffset="0" max="13.89"/>
                    </lane>
                 </right>
            </laneSection>